24
Properties=species:S:1:pos:R:3 pbc="F F F"
O       21.77759938       9.03024877      -4.93112841
H       21.90533433      10.03898383      -2.78711029
N       19.47202640       7.46406458      -3.78435961
C       20.78337273       7.15329504      -3.74139257
C       21.47077672       8.54149000      -3.88382213
O       21.60132344       9.12004471      -2.69974070
C       21.27894391       6.18879492      -4.84860724
C       22.73813461       5.80211765      -4.64608471
C       23.21309285       4.85866367      -5.74896094
N       24.61798265       4.56743374      -5.57154207
C       25.32328742       3.68733363      -6.34901820
N       24.81141402       3.41740018      -7.60326210
H       21.07575805       6.76498176      -2.74625711
H       21.14540740       6.69433560      -5.80565192
H       20.63902468       5.30561670      -4.82825187
H       22.86152953       5.31227254      -3.67654638
H       23.36388649       6.69680620      -4.65975914
H       23.06620128       5.35080917      -6.71721195
H       22.60670234       3.94030018      -5.74025516
H       24.94445527       4.55298772      -4.61622378
H       24.19643702       4.09807371      -8.01787810
H       25.45640136       2.99432416      -8.25189171
N       26.38272613       3.18440845      -5.85296372
H       26.90340299       2.58223743      -6.47939917
24
Lattice="0.0 0.0 0.0 0.0 0.0 0.0 0.0 0.0 8.96565068017342" Properties=species:S:1:pos:R:3 pbc="F F F"
O        2.71154492       1.49057760       6.19146777
H        2.82568588       1.77952217       8.76720969
N      -10.48670335      -1.24727421      13.98629413
C       -9.89553805      -2.31019955      14.07563589
C        2.40515301       0.82795933       7.12879848
O        2.44785529       0.94344669       8.40197929
C       -9.36378616      -3.15598675      12.93027743
C       -7.87332620      -3.43233940      13.10505060
C       -7.33558921      -4.30433582      11.97328807
N       -5.90777610      -4.48608938      12.12585894
C       -5.18987344      -5.41384381      11.41281440
N       -5.73010764      -5.79858455      10.19589421
H       -9.68584704      -2.77223935      15.05389568
H       -9.55213198      -2.63102091      11.99304239
H       -9.92265486      -4.09558426      12.92632853
H       -7.70059634      -3.93674429      14.05956166
H       -7.32499821      -2.48802536      13.11648369
H       -7.53428905      -3.80476570      11.01644233
H       -7.86379693      -5.26997374      11.96542151
H       -5.55880004      -4.40939867      13.07022955
H       -6.35272140      -5.15101833       9.74092801
H       -5.08624727      -6.25439458       9.56805413
N       -4.11054249      -5.84859130      11.92361308
H       -3.58563941      -6.47645537      11.32483714
